Version 4
SHEET 1 880 680
WIRE 352 16 320 16
WIRE 352 112 320 112
WIRE 352 208 320 208
WIRE 352 304 320 304
FLAG 48 16 Audio
IOPIN 48 16 In
FLAG 48 112 Audio
IOPIN 48 112 In
FLAG 48 208 Audio
IOPIN 48 208 In
FLAG 48 304 Audio
IOPIN 48 304 In
FLAG 352 16 subwoofer
IOPIN 352 16 Out
FLAG 352 112 woofer
IOPIN 352 112 Out
FLAG 352 208 midrange
IOPIN 352 208 Out
FLAG 352 304 tweeter
IOPIN 352 304 Out
SYMBOL Low_Pass_200 176 16 R0
SYMATTR InstName X1
SYMBOL Band_Pass_200_1k 176 112 R0
SYMATTR InstName X2
SYMBOL Band_Pass_1k_5K 176 208 R0
SYMATTR InstName X3
SYMBOL High_Pass_5k 176 304 R0
SYMATTR InstName X4
