Version 4
SHEET 1 880 688
WIRE -80 272 -96 272
WIRE -80 304 -96 304
WIRE -352 320 -400 320
WIRE -80 336 -96 336
WIRE -480 368 -480 320
WIRE -80 368 -96 368
FLAG -80 368 plug_your_subwoofer_here
IOPIN -80 368 Out
FLAG -80 336 plug_your_woofer_here
IOPIN -80 336 Out
FLAG -80 304 plug_your_midrange_here
IOPIN -80 304 Out
FLAG -80 272 plug_your_tweeter_here
IOPIN -80 272 Out
FLAG -480 368 0
SYMBOL Crossover -224 320 R0
SYMATTR InstName X2
SYMBOL voltage -384 320 R90
WINDOW 0 -32 56 VBottom 2
WINDOW 3 73 97 VTop 2
SYMATTR InstName V1
SYMATTR Value wavefile=audio.wav
TEXT -360 432 Left 2 !.tran 11s
TEXT -552 472 Left 2 !.wave "sub.wav" 16 44100 plug_your_subwoofer_here
TEXT -552 496 Left 2 !.wave "wof.wav" 16 44100 plug_your_woofer_here
TEXT -552 520 Left 2 !.wave "mid.wav" 16 44100 plug_your_midrange_here
TEXT -552 544 Left 2 !.wave "twe.wav" 16 44100 plug_your_tweeter_here
