Version 4
SHEET 1 880 688
WIRE -80 272 -96 272
WIRE -80 304 -96 304
WIRE -352 320 -400 320
WIRE -80 336 -96 336
WIRE -80 368 -96 368
FLAG -80 368 plug_your_subwoofer_here
IOPIN -80 368 Out
FLAG -80 336 plug_your_woofer_here
IOPIN -80 336 Out
FLAG -80 304 plug_your_midrange_here
IOPIN -80 304 Out
FLAG -80 272 plug_your_tweeter_here
IOPIN -80 272 Out
SYMBOL Crossover -224 320 R0
SYMATTR InstName X2
SYMBOL Source -528 320 R0
SYMATTR InstName X1
TEXT -360 432 Left 2 !.tran 10ms
